LAMMPS (3 Mar 2020)
units		  metal
atom_style	  atomic
timestep 	  0.002
dimension	  3
boundary	  p p p

lattice         fcc  3.615
Lattice spacing in x,y,z = 3.615 3.615 3.615
region          Wbox   block 0 10 0 10 0 10

#Here 1 is number of atom types, Wbox is region-id
create_box      1 Wbox
Created orthogonal box = (0 0 0) to (36.15 36.15 36.15)

#Here 1 is ith atom type, box is keyword
create_atoms    1 box
Created 4000 atoms

##Be careful to use eam/alloy type Mishin copper potential with funcfl format

pair_style eam/alloy
pair_coeff * * /home/ldoan/lammps-3Mar20/potentials/Cu_mishin1.eam.alloy Cu
Reading potential file /home/ldoan/lammps-3Mar20/potentials/Cu_mishin1.eam.alloy with DATE: 2007-10-12

variable T1 equal 2000.0
velocity all create 2000 1924705  mom yes dist gaussian loop all

neighbor 1.0 bin
neigh_modify every 1 delay 0 check yes

fix npt_thermostat all npt temp 2000 2000 0.2 iso 0.0 0.0 0.2 drag 0.20

dump atompos all custom 10000 dump.pos.*.dat id type x y z
dump atompos2 all custom 10000 dump2.pos.*.dat id type xu yu zu

thermo_style   custom step time temp lx vol pe press pxx
thermo_modify  flush yes
thermo 100

run 10000
  update every 1 steps, delay 0 steps, check yes
Step Time Temp Lx Volume PotEng Press Pxx
0            0         2000        36.15    47241.633   -14160.873    23288.361    22701.147
Averages over the last 51 of 101 rows, steps 5000 to 10000:
Temp Lx Volume PotEng Press Pxx
1996.96 38.4917 57030.1 -12319.9 -379.396 -518.737
Loop time of 22.751 on 4 procs for 10000 steps with 4000 atoms

compute my_msd all  msd com no
fix my_msd_ave all ave/time 100 1 100 c_my_msd[1] c_my_msd[2] c_my_msd[3] c_my_msd[4] file A_MSD_All.dat

run 50000
Step Time Temp Lx Volume PotEng Press Pxx
10000           20    1979.0653    38.447611    56833.983   -12323.237    2084.7029    925.32622
Averages over the last 251 of 501 rows, steps 35000 to 60000:
Temp Lx Volume PotEng Press Pxx
2000.93 38.4891 57018.4 -12317.9 34.0381 139.214
Loop time of 120.114 on 4 procs for 50000 steps with 4000 atoms
