LAMMPS (3 Mar 2020)
units		  metal
atom_style	  atomic
timestep 	  0.002
dimension	  3
boundary	  p p p

lattice         fcc  3.615
Lattice spacing in x,y,z = 3.615 3.615 3.615
region          Wbox   block 0 10 0 10 0 10

#Here 1 is number of atom types, Wbox is region-id
create_box      1 Wbox
Created orthogonal box = (0 0 0) to (36.15 36.15 36.15)

#Here 1 is ith atom type, box is keyword
create_atoms    1 box
Created 4000 atoms

##Be careful to use eam/alloy type Mishin copper potential with funcfl format

pair_style eam/alloy
pair_coeff * * /home/ldoan/lammps-3Mar20/potentials/Cu_mishin1.eam.alloy Cu
Reading potential file /home/ldoan/lammps-3Mar20/potentials/Cu_mishin1.eam.alloy with DATE: 2007-10-12

variable T1 equal 300.0
velocity all create 300 234965 mom yes dist gaussian loop all

neighbor 1.0 bin
neigh_modify every 1 delay 0 check yes

fix npt_thermostat all npt temp 300 300 0.2 iso 0.0 0.0 0.2 drag 0.20

dump atompos all custom 1000 dump.pos.*.dat id type x y z vx vy vz

thermo_style   custom step time temp lx vol pe press pxx
thermo_modify  flush yes
thermo 100

run 10000
  update every 1 steps, delay 0 steps, check yes
Step Time Temp Lx Volume PotEng Press Pxx
0            0          300        36.15    47241.633   -14160.873    3420.1323    3379.5149
Averages over the last 51 of 101 rows, steps 5000 to 10000:
Temp Lx Volume PotEng Press Pxx
301.009 36.319 47907.3 -14002.3 -26.9176 -119.731
Loop time of 20.1519 on 4 procs for 10000 steps with 4000 atoms
